/*--------------------------------*- C++ -*----------------------------------*\
| =========                 |                                                 |
| \\      /  F ield         | OpenFOAM: The Open Source CFD Toolbox           |
|  \\    /   O peration     | Version:  2.1.x                                 |
|   \\  /    A nd           | Web:      www.OpenFOAM.org                      |
|    \\/     M anipulation  |                                                 |
\*---------------------------------------------------------------------------*/
FoamFile
{
    version     2.0;
    format      ascii;
    class       volScalarField;
    object      ePhi;
}
// * * * * * * * * * * * * * * * * * * * * * * * * * * * * * * * * * * * * * //
dimensions      [1 2 -3 0 0 -1 0];

internalField   uniform 0;

boundaryField
{
    symmetryLine
    {
        type            empty;
    }
    left
    {
        type            fixedValue;
        value           uniform 0;
    }
    reservoir
    {
        type            zeroGradient;
    }
    wall
    {
        type            fixedValue;
        value           uniform 0.01;
    }
    top
    {
        type            wedge;
    }
    bottom
    {
        type            wedge;
    }
}

// ************************************************************************* //
