/*--------------------------------*- C++ -*----------------------------------*\
| =========                 |                                                 |
| \\      /  F ield         | OpenFOAM: The Open Source CFD Toolbox           |
|  \\    /   O peration     | Version:  2.0.0                                 |
|   \\  /    A nd           | Web:      www.OpenFOAM.org                      |
|    \\/     M anipulation  |                                                 |
\*---------------------------------------------------------------------------*/
FoamFile
{
    version     2.0;
    format      ascii;
    class       dictionary;
    location    "system";
    object      controlDict;
}
// * * * * * * * * * * * * * * * * * * * * * * * * * * * * * * * * * * * * * //

application     SIMPLESolverBAK9;

startFrom       latestTime;

startTime       0;

stopAt          endTime;

endTime         1e-5;

deltaT          2e-10;

maxDeltaT	1e-7;

writeControl    adjustableRunTime;

writeInterval   1e-7;

purgeWrite      0;

writeFormat     ascii;

writePrecision  10;

writeCompression uncompressed;

timeFormat      general;

timePrecision   10;

runTimeModifiable true;

adjustTimeStep  true;

maxCo 1e0;

libs ( "electrokinBC.so" );

// ************************************************************************* //
