/*--------------------------------*- C++ -*----------------------------------*\
| =========                 |                                                 |
| \\      /  F ield         | OpenFOAM: The Open Source CFD Toolbox           |
|  \\    /   O peration     | Version:  2.1.x                                 |
|   \\  /    A nd           | Web:      www.OpenFOAM.org                      |
|    \\/     M anipulation  |                                                 |
\*---------------------------------------------------------------------------*/
FoamFile
{
    version     2.0;
    format      ascii;
    class       volScalarField;
    object      nMinus;
}
// * * * * * * * * * * * * * * * * * * * * * * * * * * * * * * * * * * * * * //

dimensions      [0 -3 0 0 0 0 0];

internalField   uniform 1;

boundaryField
{
    bottomAndTop
    {
        type            empty;
    }
    sides
    {
        type            empty;
    }
    plateOne
    {
        type            fixedFlux;
	n		nMinus;
	charge		-1;
	D		1.91e-09;
	mu		7.4379062e-08;
	gradient	uniform 0.0;
	value		calculated;
    }
    plateTwo
    {
        type            fixedValue;
	value		uniform 1;
    }
}


// ************************************************************************* //
