/*--------------------------------*- C++ -*----------------------------------*\
| =========                 |                                                 |
| \\      /  F ield         | OpenFOAM: The Open Source CFD Toolbox           |
|  \\    /   O peration     | Version:  2.0.0                                 |
|   \\  /    A nd           | Web:      www.OpenFOAM.org                      |
|    \\/     M anipulation  |                                                 |
\*---------------------------------------------------------------------------*/
FoamFile
{
    version     2.0;
    format      ascii;
    class       dictionary;
    object      blockMeshDict;
}

// * * * * * * * * * * * * * * * * * * * * * * * * * * * * * * * * * * * * * //

convertToMeters 1.e-8;

x0 0;
x1 1;
x2 50;
x3 99;
x4 100;
y0 0;
y1 10;
z0 0;
z1 10;

vertices
(
    ($x0 $y0 $z0) //0  b0
    ($x1 $y0 $z0) //1  b1
    ($x1 $y1 $z0) //2  b2
    ($x0 $y1 $z0) //3  b3
    ($x2 $y0 $z0) //4  b5
    ($x2 $y1 $z0) //5  b6
    ($x3 $y0 $z0) //6  b9
    ($x3 $y1 $z0) //7  b10
    ($x4 $y0 $z0) //8  b11
    ($x4 $y1 $z0) //9  b12
                //+10
    ($x0 $y0 $z1) //10  u0
    ($x1 $y0 $z1) //11  u1
    ($x1 $y1 $z1) //12  u2
    ($x0 $y1 $z1) //13  u3
    ($x2 $y0 $z1) //14  u5
    ($x2 $y1 $z1) //15  u6
    ($x3 $y0 $z1) //16  u9
    ($x3 $y1 $z1) //17  u10
    ($x4 $y0 $z1) //18  u11
    ($x4 $y1 $z1) //19  u12
); 

edges
(
);

blocks
(
    hex (0 1 2 3 10 11 12 13) (3000 1 1) simpleGrading (37.099 1 1) 
    hex (1 4 5 2 11 14 15 12) (6000 1 1) simpleGrading (21.1263 1 1) 
);

boundary
(
    bottomAndTop
    {
        type empty;
        faces
        (
            (0 3 2 1)  
	    (10 11 12 13) 
	    (2 5 4 1) 
	    (11 14 15 12)
        );
    }
    sides
    {
        type empty;
        faces
        (
	    (2 3 13 12)
	    (0 1 11 10)
	    (1 4 14 11)
	    (5 2 12 15)
        );
    }
    plateOne
    {
        type patch;
        faces
        (
            (3 0 10 13)
        );
    }
    plateTwo
    {
        type patch;
        faces
        (
            (4 5 15 14)
        );
    }
);

mergePatchPairs
(
);

// ************************************************************************* //

