/*--------------------------------*- C++ -*----------------------------------*\
| =========                 |                                                 |
| \\      /  F ield         | foam-extend: Open Source CFD                    |
|  \\    /   O peration     | Version:     3.2                                |
|   \\  /    A nd           | Web:         http://www.foam-extend.org         |
|    \\/     M anipulation  | For copyright notice see file Copyright         |
\*---------------------------------------------------------------------------*/
FoamFile
{
    version     2.0;
    format      ascii;
    class       polyBoundaryMesh;
    location    "constant/polyMesh";
    object      boundary;
}
// * * * * * * * * * * * * * * * * * * * * * * * * * * * * * * * * * * * * * //

4
(
    bottomAndTop
    {
        type            empty;
        nFaces          18000;
        startFace       8999;
    }
    sides
    {
        type            empty;
        nFaces          18000;
        startFace       26999;
    }
    plateOne
    {
        type            patch;
        nFaces          1;
        startFace       44999;
    }
    plateTwo
    {
        type            patch;
        nFaces          1;
        startFace       45000;
    }
)

// ************************************************************************* //
